AquaCrop 4.0 (June 2012) - Output created on (date) : 18/08/2020   at (time) : 11:00:12

   Period     Day1   Month1    Year1     Rain      ETo       GD     CO2      Irri   Infilt   Runoff    Drain   Upflow        E     E/Ex       Tr   Tr/Trx    SaltIn   SaltOut    SaltUp  SaltProf     Cycle   SaltStr  FertStr  TempStr   ExpStr   StoStr  BioMass  Brelative   HI     Yield     WPet     DayN   MonthN    YearN  File
                                           mm       mm    °C.day    ppm        mm       mm       mm       mm       mm       mm        %       mm        %    ton/ha    ton/ha    ton/ha    ton/ha      days       %        %        %        %        %    ton/ha        %       %    ton/ha    kg/m3
   Tot(1)       22       10     2011      3.1    557.1   1938.0   392.57    300.0    303.1      0.0     64.8      0.0     67.0       29    241.2       69     0.000     0.000     0.000     0.000      124        0        0        0       13       24    11.769       73     61.4    7.231     2.35       25        2     2012  Konstant.PRO
