AquaCrop 4.0 (June 2012) - Output created on (date) : 17/08/2020   at (time) : 12:52:22

   Period     Day1   Month1    Year1     Rain      ETo       GD     CO2      Irri   Infilt   Runoff    Drain   Upflow        E     E/Ex       Tr   Tr/Trx    SaltIn   SaltOut    SaltUp  SaltProf     Cycle   SaltStr  FertStr  TempStr   ExpStr   StoStr  BioMass  Brelative   HI     Yield     WPet     DayN   MonthN    YearN  File
                                           mm       mm    °C.day    ppm        mm       mm       mm       mm       mm       mm        %       mm        %    ton/ha    ton/ha    ton/ha    ton/ha      days       %        %        %        %        %    ton/ha        %       %    ton/ha    kg/m3
   Tot(1)       22       10     2011      3.1    557.1   1938.0   392.57    300.0    303.1      0.0     51.8      0.0     32.7       24    286.4       82     0.960     0.041     0.000     0.919      124        0        0        0        5       14    13.672       85     62.8    8.583     2.69       25        2     2012  Optim.PRO
