AquaCrop 4.0 (June 2012) - Output created on (date) : 17/08/2020   at (time) : 20:44:39

   Period     Day1   Month1    Year1     Rain      ETo       GD     CO2      Irri   Infilt   Runoff    Drain   Upflow        E     E/Ex       Tr   Tr/Trx    SaltIn   SaltOut    SaltUp  SaltProf     Cycle   SaltStr  FertStr  TempStr   ExpStr   StoStr  BioMass  Brelative   HI     Yield     WPet     DayN   MonthN    YearN  File
                                           mm       mm    °C.day    ppm        mm       mm       mm       mm       mm       mm        %       mm        %    ton/ha    ton/ha    ton/ha    ton/ha      days       %        %        %        %        %    ton/ha        %       %    ton/ha    kg/m3
   Tot(1)       22       10     2011      3.1    557.1   1938.0   392.57    300.0    303.1      0.0     79.9      0.0     32.8       24    259.0       75     0.960     0.082     0.000     0.878      124        0        0        0       10       19    12.469       77     62.0    7.725     2.65       25        2     2012  Optim.PRO
