AquaCrop 4.0 (June 2012) - Output created on (date) : 26.07.2020   at (time) : 09:52:51
Soil Water Content at various depths (at center of compartments)

                 at depth (m):      0.05        0.15        0.25        0.35        0.45        0.55        0.65        0.75        0.85        0.95
   Day Month  Year   DAP Stage   WC1(vol%)   WC2(vol%)   WC3(vol%)   WC4(vol%)   WC5(vol%)   WC6(vol%)   WC7(vol%)   WC8(vol%)   WC9(vol%)  WC10(vol%)  WC11(vol%)  WC12(vol%)
    22    10  2011     1    1       28.9        20.0        13.0        13.0        13.0        13.0        13.0        13.0        13.0        13.0
    23    10  2011     2    1       13.0        13.6        13.7        13.6        13.5        13.4        13.3        13.3        13.3        13.2
    24    10  2011     3    1       12.4        13.1        13.1        13.1        13.1        13.1        13.0        13.0        13.0        13.0
    25    10  2011     4    2       11.9        13.0        13.0        13.0        13.0        13.0        13.0        13.0        13.0        13.0
    26    10  2011     5    2       11.4        13.0        13.0        13.0        13.0        13.0        13.0        13.0        13.0        13.0
    27    10  2011     6    2       10.8        13.0        13.0        13.0        13.0        13.0        13.0        13.0        13.0        13.0
    28    10  2011     7    2       10.3        13.0        13.0        13.0        13.0        13.0        13.0        13.0        13.0        13.0
    29    10  2011     8    2        9.8        13.0        13.0        13.0        13.0        13.0        13.0        13.0        13.0        13.0
    30    10  2011     9    2        9.1        13.0        13.0        13.0        13.0        13.0        13.0        13.0        13.0        13.0
    31    10  2011    10    2       30.3        16.1        13.0        13.0        13.0        13.0        13.0        13.0        13.0        13.0
     1    11  2011    11    2       10.3        13.5        13.7        13.5        13.4        13.4        13.3        13.3        13.2        13.2
     2    11  2011    12    2        9.3        13.1        13.1        13.1        13.0        13.0        13.0        13.0        13.0        13.0
     3    11  2011    13    2        8.2        13.0        13.0        13.0        13.0        13.0        13.0        13.0        13.0        13.0
     4    11  2011    14    2        7.0        13.0        13.0        13.0        13.0        13.0        13.0        13.0        13.0        13.0
     5    11  2011    15    2        5.9        13.0        13.0        13.0        13.0        13.0        13.0        13.0        13.0        13.0
     6    11  2011    16    2        5.3        12.6        13.0        13.0        13.0        13.0        13.0        13.0        13.0        13.0
     7    11  2011    17    2        4.9        12.0        13.0        13.0        13.0        13.0        13.0        13.0        13.0        13.0
     8    11  2011    18    2        4.3        11.6        13.0        13.0        13.0        13.0        13.0        13.0        13.0        13.0
     9    11  2011    19    2        4.0        11.2        13.0        13.0        13.0        13.0        13.0        13.0        13.0        13.0
    10    11  2011    20    2       31.4        11.2        13.0        13.0        13.0        13.0        13.0        13.0        13.0        13.0
    11    11  2011    21    2        9.4        13.6        13.6        13.5        13.4        13.3        13.3        13.2        13.2        13.2
    12    11  2011    22    2        7.3        13.1        13.1        13.1        13.0        13.0        13.0        13.0        13.0        13.0
    13    11  2011    23    2        5.7        13.0        13.0        13.0        13.0        13.0        13.0        13.0        13.0        13.0
    14    11  2011    24    2        5.3        12.1        13.0        13.0        13.0        13.0        13.0        13.0        13.0        13.0
    15    11  2011    25    2        4.9        10.8        13.0        13.0        13.0        13.0        13.0        13.0        13.0        13.0
    16    11  2011    26    2        4.6         9.3        13.0        13.0        13.0        13.0        13.0        13.0        13.0        13.0
    17    11  2011    27    2        4.4         7.7        13.0        13.0        13.0        13.0        13.0        13.0        13.0        13.0
    18    11  2011    28    2        4.3         5.9        12.9        13.0        13.0        13.0        13.0        13.0        13.0        13.0
    19    11  2011    29    2        4.2         5.9        11.0        13.0        13.0        13.0        13.0        13.0        13.0        13.0
    20    11  2011    30    3       28.8         5.9        11.0        13.0        13.0        13.0        13.0        13.0        13.0        13.0
    21    11  2011    31    3        8.9        13.6        13.4        13.2        13.1        13.1        13.1        13.1        13.1        13.1
    22    11  2011    32    3        5.9        12.9        13.0        13.0        13.0        13.0        13.0        13.0        13.0        13.0
    23    11  2011    33    3        5.6        10.6        12.3        13.0        13.0        13.0        13.0        13.0        13.0        13.0
    24    11  2011    34    3        5.5         8.4        11.1        13.0        13.0        13.0        13.0        13.0        13.0        13.0
    25    11  2011    35    3        5.4         6.3         9.9        13.0        13.0        13.0        13.0        13.0        13.0        13.0
    26    11  2011    36    3        5.3         5.7         7.9        12.6        13.0        13.0        13.0        13.0        13.0        13.0
    27    11  2011    37    3        5.3         5.7         6.2        11.4        13.0        13.0        13.0        13.0        13.0        13.0
    28    11  2011    38    3        5.2         5.7         5.9         9.6        12.1        13.0        13.0        13.0        13.0        13.0
    29    11  2011    39    3        5.2         5.7         5.9         7.9        11.1        13.0        13.0        13.0        13.0        13.0
    30    11  2011    40    3       31.6         5.7         5.9         7.4        11.1        13.0        13.0        13.0        13.0        13.0
     1    12  2011    41    3        9.7        12.6        13.3        10.3        11.1        13.0        13.0        13.0        13.0        13.0
     2    12  2011    42    3        6.2        11.3        13.0        10.5        11.1        13.0        13.0        13.0        13.0        13.0
     3    12  2011    43    3        5.4         9.0        12.2        10.6        11.1        13.0        13.0        13.0        13.0        13.0
     4    12  2011    44    3        5.3         6.7        11.0        10.6        11.1        13.0        13.0        13.0        13.0        13.0
     5    12  2011    45    3        5.3         5.6         8.9        10.1        11.1        13.0        13.0        13.0        13.0        13.0
     6    12  2011    46    3        5.2         5.6         6.9         8.3        10.9        13.0        13.0        13.0        13.0        13.0
     7    12  2011    47    3        5.2         5.6         5.7         6.6        10.3        13.0        13.0        13.0        13.0        13.0
     8    12  2011    48    3        5.1         5.6         5.7         5.8         8.7        11.8        13.0        13.0        13.0        13.0
     9    12  2011    49    3        5.1         5.6         5.7         5.8         7.1        10.5        12.5        13.0        13.0        13.0
    10    12  2011    50    3       31.8         5.6         5.7         5.8         6.5        10.5        12.5        13.0        13.0        13.0
    11    12  2011    51    3       10.2        13.3        13.3         8.5         6.5        10.5        12.5        13.0        13.0        13.0
    12    12  2011    52    3        6.9        12.5        13.0         9.0         6.5        10.5        12.5        13.0        13.0        13.0
    13    12  2011    53    3        5.6        10.3        13.0         9.0         6.5        10.5        12.5        13.0        13.0        13.0
    14    12  2011    54    3        5.0         7.9        12.4         9.0         6.5        10.5        12.5        13.0        13.0        13.0
    15    12  2011    55    3        4.4         5.8        11.4         9.0         6.5        10.5        12.5        13.0        13.0        13.0
    16    12  2011    56    3        4.3         5.8         9.3         7.8         6.5        10.5        12.5        13.0        13.0        13.0
    17    12  2011    57    3        4.2         5.8         7.2         6.6         6.5        10.5        12.5        13.0        13.0        13.0
    18    12  2011    58    3        4.2         5.8         5.7         5.8         5.9        10.0        12.5        13.0        13.0        13.0
    19    12  2011    59    3        4.2         5.8         5.7         5.8         5.9         8.6        11.4        13.0        13.0        13.0
    20    12  2011    60    3       30.7         5.8         5.7         5.8         5.9         7.3        10.4        13.0        13.0        13.0
    21    12  2011    61    3       10.3        12.9        13.2         7.7         5.9         7.3        10.4        13.0        13.0        13.0
    22    12  2011    62    3        7.1        12.6        13.0         7.9         5.9         7.3        10.4        13.0        13.0        13.0
    23    12  2011    63    3        5.5        10.6        13.0         7.9         5.9         7.3        10.4        13.0        13.0        13.0
    24    12  2011    64    3        4.9         8.3        12.2         7.9         5.9         7.3        10.4        13.0        13.0        13.0
    25    12  2011    65    3        4.4         6.1        11.7         7.9         5.9         7.3        10.4        13.0        13.0        13.0
    26    12  2011    66    3        4.2         5.9         9.6         7.7         5.9         7.3        10.4        13.0        13.0        13.0
    27    12  2011    67    3        4.2         5.9         7.5         6.8         5.9         7.3        10.4        13.0        13.0        13.0
    28    12  2011    68    3        4.1         5.9         5.9         5.8         5.9         7.2        10.4        13.0        13.0        13.0
    29    12  2011    69    3        4.1         5.9         5.9         5.8         5.9         6.2         9.3        12.6        13.0        13.0
    30    12  2011    70    3       30.9         5.9         5.9         5.8         5.9         6.0         8.3        12.6        13.0        13.0
    31    12  2011    71    3       10.2        12.4        13.2         8.0         5.9         6.0         8.3        12.6        13.0        13.0
     1     1  2012    72    3        7.0        11.4        13.0         8.2         5.9         6.0         8.3        12.6        13.0        13.0
     2     1  2012    73    3        5.5         9.1        12.9         8.3         5.9         6.0         8.3        12.6        13.0        13.0
     3     1  2012    74    3        5.0         6.8        11.9         8.3         5.9         6.0         8.3        12.6        13.0        13.0
     4     1  2012    75    3        4.4         5.5        10.2         8.3         5.9         6.0         8.3        12.6        13.0        13.0
     5     1  2012    76    3        4.1         5.5         8.1         7.6         5.9         6.0         8.3        12.6        13.0        13.0
     6     1  2012    77    3        4.1         5.5         6.2         7.3         5.9         6.0         8.3        12.6        13.0        13.0
     7     1  2012    78    3        4.1         5.5         5.8         5.9         5.9         6.0         8.2        12.6        13.0        13.0
     8     1  2012    79    3        4.1         5.5         5.8         5.9         5.9         6.0         7.1        11.9        13.0        13.0
     9     1  2012    80    3       31.0         5.5         5.8         5.9         5.9         6.0         6.8        11.9        13.0        13.0
    10     1  2012    81    4       10.3        12.7        13.2         7.9         5.9         6.0         6.8        11.9        13.0        13.0
    11     1  2012    82    4        7.0        11.3        13.0         8.1         5.9         6.0         6.8        11.9        13.0        13.0
    12     1  2012    83    4        5.6         9.0        12.9         8.1         5.9         6.0         6.8        11.9        13.0        13.0
    13     1  2012    84    4        5.0         6.6        12.1         8.1         5.9         6.0         6.8        11.9        13.0        13.0
    14     1  2012    85    4        4.4         5.5        10.4         8.1         5.9         6.0         6.8        11.9        13.0        13.0
    15     1  2012    86    4        4.0         5.5         8.3         7.4         5.9         6.0         6.8        11.9        13.0        13.0
    16     1  2012    87    4        3.9         5.5         6.3         6.9         5.9         6.0         6.8        11.9        13.0        13.0
    17     1  2012    88    4        3.9         5.5         5.8         5.8         5.9         6.0         6.3        11.9        13.0        13.0
    18     1  2012    89    4        3.9         5.5         5.8         5.8         5.9         6.0         6.0        11.0        12.3        12.6
    19     1  2012    90    4       30.7         5.5         5.8         5.8         5.9         6.0         6.0        10.1        12.3        12.6
    20     1  2012    91    4       10.1        11.5        13.2         7.5         5.9         6.0         6.0        10.1        12.3        12.6
    21     1  2012    92    4        7.0         9.9        13.0         7.7         5.9         6.0         6.0        10.1        12.3        12.6
    22     1  2012    93    4        5.4         7.7        13.0         7.7         5.9         6.0         6.0        10.1        12.3        12.6
    23     1  2012    94    4        5.4         5.7        12.2         7.7         5.9         6.0         6.0        10.1        12.3        12.6
    24     1  2012    95    4        5.3         5.7        10.1         6.3         5.9         6.0         6.0        10.1        12.3        12.6
    25     1  2012    96    4        5.3         5.7         8.0         5.9         5.9         6.0         6.0        10.0        12.3        12.6
    26     1  2012    97    4        5.3         5.7         6.1         5.9         5.9         6.0         6.0        10.0        12.3        12.6
    27     1  2012    98    4        5.2         5.7         5.9         5.9         5.9         6.0         6.0         9.1        12.1        12.6
    28     1  2012    99    4        5.2         5.7         5.9         5.9         5.9         6.0         6.0         8.2        11.5        12.6
    29     1  2012   100    4        5.2         5.7         5.9         5.9         5.9         6.0         6.0         7.4        10.9        12.6
    30     1  2012   101    4        5.2         5.7         5.9         5.9         5.9         6.0         6.0         6.7        10.3        12.6
    31     1  2012   102    4        5.1         5.7         5.9         5.9         5.9         6.0         6.0         6.3         9.8        12.6
     1     2  2012   103    4        5.1         5.7         5.9         5.9         5.9         6.0         6.0         6.1         9.1        12.2
     2     2  2012   104    4        5.1         5.7         5.9         5.9         5.9         6.0         6.0         6.0         8.4        12.1
     3     2  2012   105    4        5.0         5.7         5.9         5.9         5.9         6.0         6.0         6.0         7.8        12.0
     4     2  2012   106    4        5.0         5.7         5.9         5.9         5.9         6.0         6.0         6.0         7.3        11.8
     5     2  2012   107    4        4.9         5.7         5.9         5.9         5.9         6.0         6.0         6.0         6.8        11.5
     6     2  2012   108    4        5.8         5.7         5.9         5.9         5.9         6.0         6.0         6.0         6.5        11.5
     7     2  2012   109    4        4.9         5.7         5.9         5.9         5.9         6.0         6.0         6.0         6.3        11.3
     8     2  2012   110    4        4.4         5.7         5.9         5.9         5.9         6.0         6.0         6.0         6.1        11.0
     9     2  2012   111    4        4.4         5.7         5.9         5.9         5.9         6.0         6.0         6.0         6.0        10.8
    10     2  2012   112    4        4.4         5.7         5.9         5.9         5.9         6.0         6.0         6.0         6.0        10.6
    11     2  2012   113    4        4.3         5.7         5.9         5.9         5.9         6.0         6.0         6.0         6.0        10.3
    12     2  2012   114    4        4.3         5.7         5.9         5.9         5.9         6.0         6.0         6.0         6.0        10.2
    13     2  2012   115    4        4.3         5.7         5.9         5.9         5.9         6.0         6.0         6.0         6.0        10.0
    14     2  2012   116    4        4.2         5.7         5.9         5.9         5.9         6.0         6.0         6.0         6.0         9.8
    15     2  2012   117    4        4.2         5.7         5.9         5.9         5.9         6.0         6.0         6.0         6.0         9.7
    16     2  2012   118    4        4.1         5.7         5.9         5.9         5.9         6.0         6.0         6.0         6.0         9.5
    17     2  2012   119    4        4.1         5.7         5.9         5.9         5.9         6.0         6.0         6.0         6.0         9.5
    18     2  2012   120    4        4.1         5.7         5.9         5.9         5.9         6.0         6.0         6.0         6.0         9.4
    19     2  2012   121    4        4.0         5.7         5.9         5.9         5.9         6.0         6.0         6.0         6.0         9.3
    20     2  2012   122    4        4.0         5.7         5.9         5.9         5.9         6.0         6.0         6.0         6.0         9.3
    21     2  2012   123    4        4.0         5.7         5.9         5.9         5.9         6.0         6.0         6.0         6.0         9.2
    22     2  2012   124    4        3.9         5.7         5.9         5.9         5.9         6.0         6.0         6.0         6.0         9.2
    23     2  2012   125    4        3.9         5.7         5.9         5.9         5.9         6.0         6.0         6.0         6.0         9.2
    24     2  2012   126    4        3.8         5.7         5.9         5.9         5.9         6.0         6.0         6.0         6.0         9.1
    25     2  2012   127    4        3.7         5.7         5.9         5.9         5.9         6.0         6.0         6.0         6.0         9.1
