AquaCrop 4.0 (June 2012) - Output created on (date) : 26.07.2020   at (time) : 09:52:51
Crop development and production

   Day Month  Year   DAP Stage    GD       Z     StExp  StSto  StSen StSalt   CC    Kc(Tr)     Trx      Tr   Tr/Trx   WP    StBio  Biomass    HI  YieldPart  Brelative   WPet
                                °C-day     m       %      %      %      %      %      -        mm       mm     %     g/m2     %    ton/ha      %    ton/ha        %      kg/m3
    22    10  2011     1    1    18.9    0.30     -9     -9     -9      0     0.0    0.00      0.0      0.0   100    19.0     0     0.000    -9.9    0.000      -9      0.00
    23    10  2011     2    1    19.1    0.30     -9     -9     -9      0     0.0    0.00      0.0      0.0   100    19.0     0     0.000    -9.9    0.000      -9      0.00
    24    10  2011     3    1    19.4    0.30     -9      0      0      0     0.8    0.01      0.1      0.1   100    19.0     0     0.003    -9.9    0.000     100      0.00
    25    10  2011     4    2    19.9    0.34      0      0      0      0     0.9    0.02      0.1      0.1   100    19.0     0     0.006    -9.9    0.000     100      0.00
    26    10  2011     5    2    19.2    0.36      0      0      0      0     1.0    0.02      0.1      0.1   100    19.0     0     0.010    -9.9    0.000     100      0.00
    27    10  2011     6    2    18.9    0.39      0      0      0      0     1.2    0.02      0.2      0.2   100    19.0     0     0.014    -9.9    0.000     100      0.00
    28    10  2011     7    2    18.1    0.41      0      0      0      0     1.4    0.03      0.2      0.2   100    19.0     0     0.019    -9.9    0.000     100      0.00
    29    10  2011     8    2    17.9    0.43      0      0      0      0     1.6    0.03      0.2      0.2   100    19.0     0     0.024    -9.9    0.000     100      0.00
    30    10  2011     9    2    16.1    0.45      2      0      0      0     1.8    0.03      0.2      0.2   100    19.0     0     0.030    -9.9    0.000     100      0.00
    31    10  2011    10    2    18.2    0.47      0      0      0      0     2.0    0.04      0.2      0.2   100    19.0     0     0.038    -9.9    0.000     100      0.00
     1    11  2011    11    2    19.8    0.49      0      0      0      0     2.3    0.04      0.2      0.2   100    19.0     0     0.046    -9.9    0.000     100      0.00
     2    11  2011    12    2    19.3    0.51      0      0      0      0     2.7    0.05      0.1      0.1   100    19.0     0     0.055    -9.9    0.000     100      0.00
     3    11  2011    13    2    19.1    0.53      0      0      0      0     3.1    0.06      0.2      0.2   100    19.0     0     0.066    -9.9    0.000     100      0.00
     4    11  2011    14    2    18.6    0.55      0      0      0      0     3.6    0.07      0.3      0.3   100    19.0     0     0.079    -9.9    0.000     100      0.00
     5    11  2011    15    2    18.1    0.56      0      0      0      0     4.1    0.08      0.4      0.4   100    19.0     0     0.093    -9.9    0.000     100      0.00
     6    11  2011    16    2    19.0    0.58      1      0      0      0     4.7    0.09      0.4      0.4   100    19.0     0     0.110    -9.9    0.000     100      0.00
     7    11  2011    17    2    19.4    0.60      3      0      0      0     5.4    0.10      0.5      0.5   100    19.0     0     0.129    -9.9    0.000     100      0.00
     8    11  2011    18    2    18.9    0.61      1      0      0      0     6.3    0.11      0.5      0.5   100    19.0     0     0.150    -9.9    0.000     100      0.00
     9    11  2011    19    2    18.8    0.63      0      0      0      0     7.2    0.13      0.3      0.3   100    19.0     0     0.175    -9.9    0.000     100      0.00
    10    11  2011    20    2    19.1    0.64      0      0      0      0     8.3    0.15      0.3      0.3   100    19.0     0     0.203    -9.9    0.000     100      0.00
    11    11  2011    21    2    18.9    0.66      0      0      0      0     9.6    0.17      0.7      0.7   100    19.0     0     0.236    -9.9    0.000     100      0.00
    12    11  2011    22    2    18.3    0.67      0      0      0      0    11.0    0.19      0.8      0.8   100    19.0     0     0.273    -9.9    0.000     100      0.00
    13    11  2011    23    2    18.4    0.69      0      0      0      0    12.6    0.22      0.8      0.8   100    19.0     0     0.315    -9.9    0.000     100      0.00
    14    11  2011    24    2    17.6    0.70      0      0      0      0    14.4    0.25      0.9      0.9   100    19.0     0     0.362    -9.9    0.000     100      0.00
    15    11  2011    25    2    17.4    0.72      0      0      0      0    16.4    0.28      1.3      1.3   100    19.0     0     0.416    -9.9    0.000     100      0.00
    16    11  2011    26    2    17.9    0.73      2      0      0      0    18.7    0.32      1.5      1.5   100    19.0     0     0.476    -9.9    0.000     100      0.00
    17    11  2011    27    2    17.8    0.74      4      0      0      0    21.3    0.35      1.7      1.7   100    19.0     0     0.543    -9.9    0.000     100      0.00
    18    11  2011    28    2    17.5    0.75      7      0      0      0    24.1    0.39      1.9      1.9   100    19.0     0     0.618    -9.9    0.000     100      0.00
    19    11  2011    29    2    16.9    0.77      8      0      0      0    27.1    0.44      1.8      1.8   100    19.0     0     0.701    -9.9    0.000     100      0.00
    20    11  2011    30    3    16.7    0.78      0      0      0      0    30.7    0.48      2.4      2.4   100    19.0     0     0.793    -9.9    0.000     100      0.00
    21    11  2011    31    3    17.4    0.79      0      0      0      0    34.9    0.54      2.4      2.4   100    19.0     0     0.895    -9.9    0.000     100      0.00
    22    11  2011    32    3    17.6    0.80      0      0      0      0    39.7    0.59      2.5      2.5   100    19.0     0     1.008    -9.9    0.000     100      0.00
    23    11  2011    33    3    17.9    0.82      0      0      0      0    44.1    0.65      3.0      3.0   100    19.0     0     1.131    -9.9    0.000     100      0.00
    24    11  2011    34    3    16.7    0.83      1      0      0      0    47.7    0.68      3.4      3.4   100    19.0     0     1.261     1.5    0.019     100      0.03
    25    11  2011    35    3    18.3    0.84      4      0      0      0    51.1    0.72      3.3      3.3   100    19.0     0     1.398     1.7    0.024     100      0.03
    26    11  2011    36    3    17.7    0.85      6      0      0      0    53.9    0.75      2.9      2.9   100    19.0     0     1.540     1.9    0.029     100      0.04
    27    11  2011    37    3    17.1    0.86     11      0      0      0    56.2    0.77      3.0      3.0   100    19.0     0     1.687     2.1    0.036     100      0.05
    28    11  2011    38    3    16.9    0.87     17      0      0      0    58.0    0.79      3.0      3.0   100    19.0     0     1.837     2.4    0.043     100      0.05
    29    11  2011    39    3    16.9    0.89     23      0      0      0    59.6    0.80      2.7      2.7   100    19.0     0     1.989     2.6    0.052     100      0.06
    30    11  2011    40    3    16.1    0.90      0      0      0      0    61.4    0.82      3.0      3.0   100    19.0     0     2.145     2.9    0.062     100      0.07
     1    12  2011    41    3    16.6    0.91      0      0      0      0    63.0    0.83      3.6      3.6   100    19.0     0     2.304     3.2    0.074     100      0.08
     2    12  2011    42    3    17.4    0.92      0      0      0      0    64.4    0.85      3.8      3.8   100    19.0     0     2.464     3.6    0.088     100      0.09
     3    12  2011    43    3    16.1    0.93      0      0      0      0    65.6    0.86      3.1      3.1   100    19.0     0     2.627     4.0    0.105     100      0.10
     4    12  2011    44    3    16.3    0.94      4      0      0      0    66.7    0.86      3.5      3.5   100    19.0     0     2.792     4.4    0.123     100      0.12
     5    12  2011    45    3    16.3    0.95      9      0      0      0    67.5    0.87      3.7      3.7   100    19.0     0     2.958     4.9    0.144     100      0.13
     6    12  2011    46    3    15.1    0.96     18      0      0      0    68.2    0.88      4.0      4.0   100    19.0     0     3.125     5.4    0.169     100      0.15
     7    12  2011    47    3    14.9    0.97     25      0      0      0    68.7    0.88      3.5      3.5   100    19.0     0     3.293     6.0    0.197     100      0.17
     8    12  2011    48    3    15.4    0.98     39      0      0      0    69.1    0.89      3.5      3.5   100    19.0     0     3.462     6.6    0.228     100      0.19
     9    12  2011    49    3    14.6    0.99     55      0      0      0    69.4    0.89      3.4      3.4   100    19.0     0     3.631     7.3    0.264     100      0.21
    10    12  2011    50    3    13.4    0.99      0      0      0      0    69.9    0.89      3.2      3.2   100    19.0     0     3.801     8.0    0.304     100      0.24
    11    12  2011    51    3    14.1    1.00      0      0      0      0    70.4    0.90      3.0      3.0   100    19.0     0     3.971     8.8    0.350     100      0.27
    12    12  2011    52    3    12.9    1.00      1      0      0      0    70.9    0.90      3.1      3.1   100    19.0     0     4.143     9.7    0.401     100      0.30
    13    12  2011    53    3    14.1    1.00      4      0      0      0    71.2    0.90      2.9      2.9   100    19.0     0     4.314    10.6    0.458     100      0.33
    14    12  2011    54    3    14.6    1.00      9      0      0      0    71.6    0.91      3.0      3.0   100    19.0     0     4.487    11.6    0.521     100      0.36
    15    12  2011    55    3    14.9    1.00     15      0      0      0    71.9    0.91      3.0      3.0   100    19.0     0     4.660    12.7    0.590     100      0.40
    16    12  2011    56    3    14.6    1.00     28      0      0      0    72.1    0.91      3.3      3.3   100    19.0     0     4.833    13.7    0.663     100      0.44
    17    12  2011    57    3    13.4    1.00     43      0      0      0    72.3    0.91      3.3      3.3   100    19.0     0     5.007    14.8    0.739     100      0.48
    18    12  2011    58    3    15.0    1.00     68      0      0      0    72.3    0.91      3.5      3.5   100    19.0     0     5.180    15.8    0.819     100      0.52
    19    12  2011    59    3    15.1    1.00     83      5      0      0    72.4    0.91      2.6      2.5    95    19.0     0     5.345    16.8    0.900      99      0.57
    20    12  2011    60    3    14.0    1.00      3      0      0      0    72.6    0.91      4.8      4.8   100    19.0     0     5.519    17.9    0.987      99      0.60
    21    12  2011    61    3    12.6    1.00      4      0      0      0    72.8    0.92      3.3      3.3   100    19.0     0     5.693    18.9    1.078      99      0.64
    22    12  2011    62    3    11.2    1.00      8      0      0      0    73.0    0.92      2.9      2.9   100    19.0     0     5.868    20.0    1.173      99      0.68
    23    12  2011    63    3    11.4    1.00     14      0      0      0    73.1    0.92      3.0      3.0   100    19.0     0     6.043    21.0    1.271      99      0.72
    24    12  2011    64    3    11.8    1.00     25      0      0      0    73.2    0.92      3.1      3.1   100    19.0     0     6.218    22.1    1.373      99      0.76
    25    12  2011    65    3    12.4    1.00     35      0      0      0    73.3    0.92      2.7      2.7   100    19.0     0     6.393    23.1    1.479      99      0.81
    26    12  2011    66    3    13.4    1.00     50      0      0      0    73.4    0.92      2.5      2.5   100    19.0     0     6.568    24.2    1.588      99      0.86
    27    12  2011    67    3    13.9    1.00     84      6      0      0    73.4    0.92      3.2      3.0    94    19.0     0     6.733    25.2    1.698      99      0.90
    28    12  2011    68    3    13.5    1.00    100     16      0      0    73.4    0.92      3.4      2.8    84    19.0     0     6.879    26.3    1.806      99      0.94
    29    12  2011    69    3    14.4    1.00    100     25      0      0    73.4    0.92      3.3      2.5    75    19.0     0     7.010    27.3    1.912      98      0.99
    30    12  2011    70    3    14.6    1.00      4      0      0      0    74.5    0.92      3.8      3.8   100    19.0     0     7.186    28.3    2.035      98      1.03
    31    12  2011    71    3    14.5    1.00     -9      0      0      0    74.5    0.92      3.9      3.9   100    19.0     0     7.362    29.4    2.162      98      1.06
     1     1  2012    72    3    12.6    1.00     -9      0      0      0    74.6    0.92      3.5      3.5   100    19.0     0     7.538    30.4    2.293      98      1.11
     2     1  2012    73    3    14.3    1.00     -9      0      0      0    74.6    0.92      3.3      3.3   100    19.0     0     7.713    31.5    2.427      98      1.15
     3     1  2012    74    3    13.9    1.00     -9      0      0      0    74.7    0.92      3.3      3.3   100    19.0     0     7.889    32.5    2.565      98      1.19
     4     1  2012    75    3    14.1    1.00     -9      4      0      0    74.7    0.92      3.0      2.9    96    19.0     0     8.057    33.5    2.703      98      1.24
     5     1  2012    76    3    14.2    1.00     -9     16      0      0    74.7    0.92      3.2      2.7    84    19.0     0     8.205    34.6    2.837      98      1.28
     6     1  2012    77    3    13.4    1.00     -9     22      0      0    74.8    0.92      2.9      2.2    78    19.0     0     8.341    35.6    2.970      98      1.33
     7     1  2012    78    3    14.4    1.00     -9     29      0      0    74.8    0.92      2.8      2.0    71    19.0     0     8.465    36.6    3.100      97      1.37
     8     1  2012    79    3    15.3    1.00     -9     36      0      0    74.8    0.92      2.8      1.8    64    19.0     0     8.577    37.6    3.227      96      1.42
     9     1  2012    80    3    14.9    1.00     -9      0      0      0    74.8    0.92      2.8      2.8   100    19.0     0     8.752    38.7    3.384      97      1.47
    10     1  2012    81    4    14.8    1.00     -9      0      0      0    74.8    0.92      3.5      3.5   100    19.0     0     8.926    39.7    3.545      97      1.51
    11     1  2012    82    4    15.1    1.00     -9      0      0      0    74.9    0.92      4.0      4.0   100    19.0     0     9.101    40.8    3.710      97      1.55
    12     1  2012    83    4    15.5    1.00     -9      0      0      0    74.9    0.92      3.3      3.3   100    19.0     0     9.275    41.8    3.878      97      1.59
    13     1  2012    84    4    16.0    1.00     -9      1      0      0    74.9    0.91      3.1      3.1    99    19.0     0     9.448    42.8    4.048      97      1.64
    14     1  2012    85    4    15.8    1.00     -9     13      0      0    74.9    0.91      3.3      2.8    87    19.0     0     9.598    43.9    4.212      97      1.68
    15     1  2012    86    4    15.9    1.00     -9     26      0      0    74.9    0.91      3.8      2.8    74    19.0     0     9.726    44.9    4.366      96      1.72
    16     1  2012    87    4    13.6    1.00     -9     35      0      0    74.9    0.91      3.7      2.4    65    19.0     0     9.840    45.9    4.516      96      1.76
    17     1  2012    88    4    11.8    1.00     -9     42      0      0    74.9    0.91      3.8      2.2    58    19.0     0     9.939    46.9    4.659      95      1.80
    18     1  2012    89    4    12.9    1.00     -9     54      5      0    74.8    0.91      4.8      2.2    46    19.0     0    10.020    47.8    4.793      94      1.84
    19     1  2012    90    4    11.6    1.00     -9      0      0      0    74.9    0.91      3.5      3.5   100    19.0     0    10.193    48.9    4.982      94      1.88
    20     1  2012    91    4    13.6    1.00     -9      0      0      0    74.9    0.91      4.7      4.7   100    19.0     0    10.366    49.9    5.175      94      1.91
    21     1  2012    92    4    14.8    1.00     -9      0      0      0    75.0    0.91      4.2      4.2   100    19.0     0    10.538    51.0    5.371      95      1.95
    22     1  2012    93    4    11.4    1.00     -9     11      0      0    75.0    0.91      4.1      3.6    89    19.0     0    10.692    52.0    5.559      94      1.99
    23     1  2012    94    4    11.1    1.00     -9     18      0      0    75.0    0.91      3.4      2.8    82    19.0     0    10.834    53.0    5.744      94      2.04
    24     1  2012    95    4    10.8    1.00     -9     35      0      0    75.0    0.90      5.3      3.5    65    19.0     0    10.945    54.0    5.912      94      2.07
    25     1  2012    96    4    11.5    1.00     -9     43      1      0    74.9    0.90      4.7      2.7    57    19.0     0    11.044    55.0    6.073      93      2.11
    26     1  2012    97    4    10.9    1.00     -9     46      1      0    74.9    0.90      3.4      1.9    54    19.0     0    11.137    56.0    6.233      93      2.15
    27     1  2012    98    4    12.3    1.00     -9     50      3      0    74.9    0.90      2.9      1.4    50    19.0     0    11.223    56.9    6.390      92      2.19
    28     1  2012    99    4    12.2    1.00     -9     56      6      0    74.8    0.90      3.2      1.4    44    19.0     0    11.299    57.9    6.540      91      2.23
    29     1  2012   100    4    15.0    1.00     -9     62     10      0    74.6    0.89      3.7      1.4    38    19.0     0    11.364    58.8    6.682      91      2.27
    30     1  2012   101    4    14.7    1.00     -9     66     14      0    74.3    0.88      3.7      1.3    34    19.0     0    11.421    59.7    6.819      90      2.31
    31     1  2012   102    4    14.4    1.00     -9     69     16      0    73.9    0.88      3.2      1.0    31    19.0     0    11.473    60.6    6.952      89      2.34
     1     2  2012   103    4    15.8    1.00     -9     76     27      0    73.5    0.87      5.1      1.2    24    19.0     0    11.514    61.4    7.074      88      2.37
     2     2  2012   104    4    14.8    1.00     -9     77     27      0    73.1    0.86      3.4      0.8    23    19.0     0    11.552    61.4    7.098      88      2.37
     3     2  2012   105    4    14.8    1.00     -9     79     31      0    72.7    0.85      3.4      0.7    21    19.0     0    11.586    61.4    7.119      87      2.38
     4     2  2012   106    4    12.2    1.00     -9     83     40      0    72.3    0.84      4.6      0.8    17    19.0     0    11.613    61.4    7.135      86      2.37
     5     2  2012   107    4    10.9    1.00     -9     86     48      0    71.9    0.83      5.2      0.7    14    19.0     0    11.635    61.4    7.149      85      2.37
     6     2  2012   108    4    12.6    1.00     -9     85     38      0    71.4    0.82      5.4      0.8    15    19.0     0    11.659    61.4    7.164      84      2.36
     7     2  2012   109    4    11.3    1.00     -9     88     46      0    71.0    0.81      3.8      0.5    12    19.0     0    11.678    61.4    7.176      84      2.36
     8     2  2012   110    4    10.8    1.00     -9     91     57      0    70.5    0.81      3.9      0.4     9    19.0     0    11.693    61.4    7.184      83      2.35
     9     2  2012   111    4    13.6    1.00     -9     92     64      0    69.9    0.79      3.4      0.3     8    19.0     0    11.705    61.4    7.192      82      2.35
    10     2  2012   112    4    13.1    1.00     -9     93     68      0    69.3    0.78      3.8      0.3     7    19.0     0    11.716    61.4    7.199      81      2.35
    11     2  2012   113    4    14.6    1.00     -9     94     71      0    68.5    0.76      3.6      0.2     6    19.0     0    11.725    61.4    7.205      80      2.35
    12     2  2012   114    4    14.3    1.00     -9     94     74      0    67.7    0.75      3.3      0.2     6    19.0     0    11.734    61.4    7.210      80      2.35
    13     2  2012   115    4    14.0    1.00     -9     95     79      0    66.8    0.73      4.4      0.2     5    19.0     0    11.740    61.4    7.214      79      2.35
    14     2  2012   116    4    13.8    1.00     -9     96     82      0    65.9    0.71      4.3      0.2     4    19.0     0    11.746    61.4    7.217      78      2.35
    15     2  2012   117    4    14.1    1.00     -9     96     82      0    64.9    0.70      3.1      0.1     4    19.0     0    11.751    61.4    7.220      78      2.35
    16     2  2012   118    4    14.3    1.00     -9     97     87      0    63.8    0.68      4.6      0.1     3    19.0     0    11.754    61.4    7.222      77      2.35
    17     2  2012   119    4    15.4    1.00     -9     97     87      0    62.6    0.65      3.1      0.1     3    19.0     0    11.758    61.4    7.224      76      2.35
    18     2  2012   120    4    17.1    1.00     -9     98     90      0    61.0    0.63      3.9      0.1     2    19.0     0    11.760    61.4    7.226      76      2.35
    19     2  2012   121    4    17.4    1.00     -9     98     91      0    59.3    0.60      2.9      0.1     2    19.0     0    11.763    61.4    7.227      75      2.35
    20     2  2012   122    4    16.9    1.00     -9     98     91      0    57.5    0.56      2.5      0.0     2    19.0     0    11.764    61.4    7.229      75      2.35
    21     2  2012   123    4    13.9    1.00     -9     99     93      0    55.9    0.54      2.7      0.0     1    19.0     0    11.766    61.4    7.229      74      2.35
    22     2  2012   124    4    12.4    1.00     -9     99     94      0    54.3    0.51      3.1      0.0     1    19.0     0    11.767    61.4    7.230      74      2.35
    23     2  2012   125    4    12.4    1.00     -9     99     95      0    52.6    0.48      2.8      0.0     1    19.0     0    11.768    61.4    7.231      73      2.35
    24     2  2012   126    4    12.6    1.00     -9     99     97      0    50.8    0.45      3.0      0.0     1    19.0     0    11.769    61.4    7.231      73      2.35
    25     2  2012   127    4    14.3    1.00     -9     -9     97      0     0.0    0.00      0.0      0.0   100    19.0     0    11.769    61.4    7.231      73      2.35
