AquaCrop 4.0 (June 2012) - Output created on (date) : 26.07.2020   at (time) : 09:52:51
Water content in soil profile (WCTotal layer: 0.00 - 1.00 m) and root zone (Wr with Zrx = 1.00 m)

   Day Month  Year   DAP Stage     WCTot   Wr(Zx)      Z       Wr    Wr(SAT)    Wr(FC)   Wr(exp)   Wr(sto)   Wr(sen)   Wr(PWP)
                                     mm       mm       m       mm        mm        mm        mm        mm        mm        mm
    22    10  2011     1    1     152.9    152.9    0.30     61.9     108.0      39.0      35.8      29.7      24.3      18.0
    23    10  2011     2    1     133.8    133.8    0.30     40.3     108.0      39.0      35.8      29.3      24.3      18.0
    24    10  2011     3    1     129.9    129.9    0.30     39.1     109.5      39.6      37.4      29.7      25.3      18.3
    25    10  2011     4    2     129.0    129.0    0.34     42.7     121.2      43.8      40.7      32.4      27.6      20.2
    26    10  2011     5    2     128.4    128.4    0.36     45.8     131.1      47.3      44.4      35.3      30.0      21.8
    27    10  2011     6    2     127.8    127.8    0.39     48.4     140.1      50.6      48.5      38.6      32.8      23.3
    28    10  2011     7    2     127.3    127.3    0.41     50.8     148.1      53.5      50.6      40.2      34.2      24.7
    29    10  2011     8    2     126.8    126.8    0.43     53.0     155.7      56.2      53.0      42.2      35.9      25.9
    30    10  2011     9    2     126.1    126.1    0.45     54.7     162.1      58.6      56.8      45.1      38.3      27.0
    31    10  2011    10    2     150.4    150.4    0.47     81.5     169.2      61.1      56.5      44.9      38.3      28.2
     1    11  2011    11    2     130.9    130.9    0.49     63.2     176.6      63.8      57.5      45.7      39.0      29.4
     2    11  2011    12    2     126.7    126.7    0.51     62.8     183.5      66.3      57.4      45.7      39.2      30.6
     3    11  2011    13    2     125.3    125.3    0.53     63.9     190.2      68.7      60.4      48.0      41.1      31.7
     4    11  2011    14    2     124.0    124.0    0.55     64.9     196.5      70.9      64.2      51.0      43.6      32.7
     5    11  2011    15    2     122.9    122.9    0.56     66.0     202.4      73.1      66.9      53.2      45.4      33.7
     6    11  2011    16    2     121.9    121.9    0.58     67.2     208.6      75.3      68.9      54.8      46.7      34.8
     7    11  2011    17    2     120.9    120.9    0.60     68.4     214.7      77.5      71.9      57.1      48.7      35.8
     8    11  2011    18    2     119.8    119.8    0.61     69.5     220.5      79.6      71.9      57.2      48.8      36.8
     9    11  2011    19    2     119.2    119.2    0.63     70.9     226.2      81.7      71.1      56.6      48.5      37.7
    10    11  2011    20    2     146.7    146.7    0.64    100.4     231.9      83.7      72.4      57.6      49.4      38.6
    11    11  2011    21    2     129.5    129.5    0.66     84.6     237.4      85.7      77.2      61.4      52.5      39.6
    12    11  2011    22    2     124.7    124.7    0.67     82.2     242.6      87.6      78.8      62.6      53.5      40.4
    13    11  2011    23    2     122.7    122.7    0.69     82.2     247.8      89.5      80.1      63.7      54.4      41.3
    14    11  2011    24    2     121.3    121.3    0.70     82.6     252.7      91.3      81.5      64.8      55.4      42.1
    15    11  2011    25    2     119.7    119.7    0.72     82.6     257.5      93.0      84.7      67.4      57.5      42.9
    16    11  2011    26    2     117.9    117.9    0.73     82.7     262.3      94.7      86.3      68.6      58.6      43.7
    17    11  2011    27    2     116.1    116.1    0.74     82.5     267.1      96.5      88.1      70.0      59.7      44.5
    18    11  2011    28    2     114.0    114.0    0.75     82.1     271.7      98.1      90.0      71.5      61.0      45.3
    19    11  2011    29    2     112.1    112.1    0.77     81.8     276.1      99.7      90.0      71.6      61.1      46.0
    20    11  2011    30    3     136.7    136.7    0.78    108.0     280.4     101.3      92.9      73.8      63.0      46.7
    21    11  2011    31    3     127.6    127.6    0.79    100.3     284.9     102.9      93.5      74.4      63.5      47.5
    22    11  2011    32    3     123.0    123.0    0.80     97.5     289.3     104.5      94.3      75.0      64.1      48.2
    23    11  2011    33    3     119.6    119.6    0.82     95.7     293.8     106.1      96.7      76.9      65.6      49.0
    24    11  2011    34    3     116.0    116.0    0.83     93.6     297.9     107.6      98.9      78.6      67.0      49.7
    25    11  2011    35    3     112.6    112.6    0.84     91.8     302.4     109.2      99.5      79.1      67.5      50.4
    26    11  2011    36    3     109.6    109.6    0.85     90.4     306.7     110.8      99.4      79.0      67.5      51.1
    27    11  2011    37    3     106.6    106.6    0.86     88.8     310.8     112.2     100.7      80.1      68.4      51.8
    28    11  2011    38    3     103.5    103.5    0.87     87.2     314.9     113.7     101.8      80.9      69.2      52.5
    29    11  2011    39    3     100.8    100.8    0.89     85.9     318.9     115.2     102.1      81.2      69.5      53.2
    30    11  2011    40    3     126.7    126.7    0.90    113.3     322.7     116.5     104.1      82.7      70.7      53.8
     1    12  2011    41    3     122.0    122.0    0.91    109.9     326.5     117.9     106.7      84.9      72.5      54.4
     2    12  2011    42    3     117.1    117.1    0.92    106.5     330.6     119.4     108.5      86.3      73.6      55.1
     3    12  2011    43    3     113.3    113.3    0.93    104.0     334.3     120.7     107.5      85.5      73.1      55.7
     4    12  2011    44    3     109.6    109.6    0.94    101.7     338.0     122.0     110.0      87.4      74.7      56.3
     5    12  2011    45    3     105.9    105.9    0.95     99.3     341.6     123.4     111.4      88.6      75.7      56.9
     6    12  2011    46    3     101.8    101.8    0.96     96.4     345.0     124.6     113.5      90.3      77.0      57.5
     7    12  2011    47    3      98.2     98.2    0.97     94.0     348.4     125.8     113.1      89.9      76.8      58.1
     8    12  2011    48    3      94.7     94.7    0.98     91.7     351.8     127.0     114.2      90.8      77.6      58.6
     9    12  2011    49    3      91.3     91.3    0.99     89.5     355.0     128.2     114.7      91.2      78.0      59.2
    10    12  2011    50    3     117.3    117.3    0.99    116.6     358.0     129.3     115.2      91.6      78.3      59.7
    11    12  2011    51    3     113.7    113.7    1.00    113.7     360.0     130.0     115.0      91.5      78.3      60.0
    12    12  2011    52    3     109.9    109.9    1.00    109.9     360.0     130.0     115.6      91.9      78.6      60.0
    13    12  2011    53    3     106.4    106.4    1.00    106.4     360.0     130.0     114.8      91.3      78.1      60.0
    14    12  2011    54    3     102.8    102.8    1.00    102.8     360.0     130.0     115.0      91.5      78.3      60.0
    15    12  2011    55    3      99.2     99.2    1.00     99.2     360.0     130.0     115.0      91.5      78.3      60.0
    16    12  2011    56    3      95.8     95.8    1.00     95.8     360.0     130.0     115.8      92.1      78.8      60.0
    17    12  2011    57    3      92.5     92.5    1.00     92.5     360.0     130.0     115.8      92.1      78.8      60.0
    18    12  2011    58    3      89.0     89.0    1.00     89.0     360.0     130.0     116.4      92.5      79.1      60.0
    19    12  2011    59    3      86.5     86.5    1.00     86.5     360.0     130.0     114.0      90.6      77.7      60.0
    20    12  2011    60    3     110.7    110.7    1.00    110.7     360.0     130.0     120.3      95.6      81.5      60.0
    21    12  2011    61    3     106.7    106.7    1.00    106.7     360.0     130.0     115.8      92.1      78.8      60.0
    22    12  2011    62    3     103.2    103.2    1.00    103.2     360.0     130.0     114.8      91.3      78.1      60.0
    23    12  2011    63    3      99.6     99.6    1.00     99.6     360.0     130.0     115.0      91.5      78.3      60.0
    24    12  2011    64    3      95.9     95.9    1.00     95.9     360.0     130.0     115.3      91.7      78.5      60.0
    25    12  2011    65    3      92.7     92.7    1.00     92.7     360.0     130.0     114.0      90.6      77.7      60.0
    26    12  2011    66    3      90.1     90.1    1.00     90.1     360.0     130.0     113.5      90.2      77.3      60.0
    27    12  2011    67    3      87.0     87.0    1.00     87.0     360.0     130.0     115.6      91.9      78.6      60.0
    28    12  2011    68    3      84.1     84.1    1.00     84.1     360.0     130.0     116.1      92.3      78.9      60.0
    29    12  2011    69    3      81.6     81.6    1.00     81.6     360.0     130.0     115.8      92.1      78.8      60.0
    30    12  2011    70    3     107.2    107.2    1.00    107.2     360.0     130.0     117.1      93.1      79.6      60.0
    31    12  2011    71    3     102.6    102.6    1.00    102.6     360.0     130.0     117.4      93.3      79.7      60.0
     1     1  2012    72    3      98.5     98.5    1.00     98.5     360.0     130.0     116.4      92.5      79.1      60.0
     2     1  2012    73    3      94.6     94.6    1.00     94.6     360.0     130.0     115.8      92.1      78.8      60.0
     3     1  2012    74    3      90.7     90.7    1.00     90.7     360.0     130.0     115.8      92.1      78.8      60.0
     4     1  2012    75    3      87.2     87.2    1.00     87.2     360.0     130.0     115.0      91.5      78.3      60.0
     5     1  2012    76    3      84.2     84.2    1.00     84.2     360.0     130.0     115.6      91.9      78.6      60.0
     6     1  2012    77    3      81.9     81.9    1.00     81.9     360.0     130.0     114.5      91.1      78.0      60.0
     7     1  2012    78    3      79.9     79.9    1.00     79.9     360.0     130.0     114.5      91.1      78.0      60.0
     8     1  2012    79    3      78.1     78.1    1.00     78.1     360.0     130.0     114.5      91.1      78.0      60.0
     9     1  2012    80    3     104.7    104.7    1.00    104.7     360.0     130.0     114.5      91.1      78.0      60.0
    10     1  2012    81    4     100.6    100.6    1.00    100.6     360.0     130.0     116.4      92.5      79.1      60.0
    11     1  2012    82    4      95.9     95.9    1.00     95.9     360.0     130.0     117.9      93.8      80.0      60.0
    12     1  2012    83    4      92.0     92.0    1.00     92.0     360.0     130.0     115.8      92.1      78.8      60.0
    13     1  2012    84    4      88.4     88.4    1.00     88.4     360.0     130.0     115.3      91.7      78.5      60.0
    14     1  2012    85    4      85.0     85.0    1.00     85.0     360.0     130.0     115.8      92.1      78.8      60.0
    15     1  2012    86    4      81.7     81.7    1.00     81.7     360.0     130.0     117.4      93.3      79.7      60.0
    16     1  2012    87    4      79.2     79.2    1.00     79.2     360.0     130.0     117.1      93.1      79.6      60.0
    17     1  2012    88    4      77.0     77.0    1.00     77.0     360.0     130.0     117.4      93.3      79.7      60.0
    18     1  2012    89    4      74.7     74.7    1.00     74.7     360.0     130.0     120.3      95.6      87.3      60.0
    19     1  2012    90    4     100.7    100.7    1.00    100.7     360.0     130.0     116.4      92.5      85.2      60.0
    20     1  2012    91    4      95.1     95.1    1.00     95.1     360.0     130.0     120.0      95.4      81.3      60.0
    21     1  2012    92    4      90.4     90.4    1.00     90.4     360.0     130.0     118.5      94.2      80.4      60.0
    22     1  2012    93    4      86.6     86.6    1.00     86.6     360.0     130.0     118.2      94.0      80.2      60.0
    23     1  2012    94    4      83.8     83.8    1.00     83.8     360.0     130.0     116.1      92.3      78.9      60.0
    24     1  2012    95    4      80.3     80.3    1.00     80.3     360.0     130.0     121.9      96.9      82.4      60.0
    25     1  2012    96    4      77.6     77.6    1.00     77.6     360.0     130.0     120.0      95.4      81.3      60.0
    26     1  2012    97    4      75.7     75.7    1.00     75.7     360.0     130.0     116.4      92.5      85.2      60.0
    27     1  2012    98    4      74.2     74.2    1.00     74.2     360.0     130.0     114.8      91.3      84.4      60.0
    28     1  2012    99    4      72.8     72.8    1.00     72.8     360.0     130.0     115.8      92.1      84.9      60.0
    29     1  2012   100    4      71.3     71.3    1.00     71.3     360.0     130.0     117.4      93.3      85.8      60.0
    30     1  2012   101    4      70.0     70.0    1.00     70.0     360.0     130.0     117.4      93.3      85.8      60.0
    31     1  2012   102    4      69.0     69.0    1.00     69.0     360.0     130.0     116.1      92.3      85.1      60.0
     1     2  2012   103    4      67.7     67.7    1.00     67.7     360.0     130.0     121.9      96.9      88.1      60.0
     2     2  2012   104    4      66.9     66.9    1.00     66.9     360.0     130.0     116.9      92.9      85.5      60.0
     3     2  2012   105    4      66.1     66.1    1.00     66.1     360.0     130.0     116.9      92.9      85.5      60.0
     4     2  2012   106    4      65.3     65.3    1.00     65.3     360.0     130.0     120.8      96.0      87.6      60.0
     5     2  2012   107    4      64.5     64.5    1.00     64.5     360.0     130.0     122.6      97.5      88.6      60.0
     6     2  2012   108    4      65.0     65.0    1.00     65.0     360.0     130.0     123.4      98.1      89.0      60.0
     7     2  2012   109    4      63.7     63.7    1.00     63.7     360.0     130.0     118.7      94.4      86.5      60.0
     8     2  2012   110    4      62.9     62.9    1.00     62.9     360.0     130.0     119.2      94.8      86.7      60.0
     9     2  2012   111    4      62.5     62.5    1.00     62.5     360.0     130.0     117.7      93.5      85.9      60.0
    10     2  2012   112    4      62.2     62.2    1.00     62.2     360.0     130.0     119.2      94.8      86.7      60.0
    11     2  2012   113    4      62.0     62.0    1.00     62.0     360.0     130.0     118.7      94.4      86.5      60.0
    12     2  2012   114    4      61.8     61.8    1.00     61.8     360.0     130.0     117.9      93.8      86.0      60.0
    13     2  2012   115    4      61.5     61.5    1.00     61.5     360.0     130.0     122.1      97.1      88.3      60.0
    14     2  2012   116    4      61.3     61.3    1.00     61.3     360.0     130.0     122.1      97.1      88.3      60.0
    15     2  2012   117    4      61.1     61.1    1.00     61.1     360.0     130.0     118.2      94.0      86.2      60.0
    16     2  2012   118    4      61.0     61.0    1.00     61.0     360.0     130.0     124.2      98.7      89.4      60.0
    17     2  2012   119    4      60.9     60.9    1.00     60.9     360.0     130.0     118.7      94.4      86.5      60.0
    18     2  2012   120    4      60.7     60.7    1.00     60.7     360.0     130.0     122.6      97.5      88.6      60.0
    19     2  2012   121    4      60.6     60.6    1.00     60.6     360.0     130.0     119.2      94.8      86.7      60.0
    20     2  2012   122    4      60.6     60.6    1.00     60.6     360.0     130.0     117.9      93.8      86.0      60.0
    21     2  2012   123    4      60.5     60.5    1.00     60.5     360.0     130.0     119.5      95.0      86.9      60.0
    22     2  2012   124    4      60.4     60.4    1.00     60.4     360.0     130.0     122.4      97.3      88.4      60.0
    23     2  2012   125    4      60.3     60.3    1.00     60.3     360.0     130.0     121.6      96.7      88.0      60.0
    24     2  2012   126    4      60.3     60.3    1.00     60.3     360.0     130.0     123.7      98.3      89.1      60.0
    25     2  2012   127    4      60.1     60.1    1.00     60.1     360.0     130.0     123.7      98.3      89.1      60.0
