AquaCrop 4.0 (June 2012) - Output created on (date) : 26.07.2020   at (time) : 09:52:51
Simulation run

    RunNr     Day1   Month1    Year1     Rain      ETo       GD     CO2      Irri   Infilt   Runoff    Drain   Upflow        E     E/Ex       Tr   Tr/Trx    SaltIn   SaltOut    SaltUp  SaltProf     Cycle   SaltStr  FertStr  TempStr   ExpStr   StoStr  BioMass  Brelative   HI     Yield     WPet     DayN   MonthN    YearN
                                           mm       mm    °C.day    ppm        mm       mm       mm       mm       mm       mm        %       mm        %    ton/ha    ton/ha    ton/ha    ton/ha      days       %        %        %        %        %    ton/ha        %       %    ton/ha    kg/m3
        1       22       10     2011        3      557     1938   392.57      300      303        0       65        0       67       29      241       69     0.000     0.000     0.000     0.000      124        0        0        0       13       24    11.769       73     61.4    7.231     2.35       25        2     2012
