AquaCrop 4.0 (June 2012) - Output created on (date) : 26.07.2020   at (time) : 09:52:51
Salt balance for soil profile (Total layer: 0.00 - 1.00 m) and soil salinity in root zone (Z)

   Day Month  Year   DAP Stage   SaltIn    SaltOut   SaltUp    SaltTot    SaltZ     Z       ECe    ECsw   StSalt  Zgwt    ECgw
                                 ton/ha    ton/ha    ton/ha    ton/ha    ton/ha     m      dS/m    dS/m      %     m      dS/m
    22    10  2011     1    1     0.000     0.000     0.000     0.000     0.000    0.30    0.00    0.00      0   -0.09   -9.00
    23    10  2011     2    1     0.000     0.000     0.000     0.000     0.000    0.30    0.00    0.00      0   -0.09   -9.00
    24    10  2011     3    1     0.000     0.000     0.000     0.000     0.000    0.30    0.00    0.00      0   -0.09   -9.00
    25    10  2011     4    2     0.000     0.000     0.000     0.000     0.000    0.34    0.00    0.00      0   -0.09   -9.00
    26    10  2011     5    2     0.000     0.000     0.000     0.000     0.000    0.36    0.00    0.00      0   -0.09   -9.00
    27    10  2011     6    2     0.000     0.000     0.000     0.000     0.000    0.39    0.00    0.00      0   -0.09   -9.00
    28    10  2011     7    2     0.000     0.000     0.000     0.000     0.000    0.41    0.00    0.00      0   -0.09   -9.00
    29    10  2011     8    2     0.000     0.000     0.000     0.000     0.000    0.43    0.00    0.00      0   -0.09   -9.00
    30    10  2011     9    2     0.000     0.000     0.000     0.000     0.000    0.45    0.00    0.00      0   -0.09   -9.00
    31    10  2011    10    2     0.000     0.000     0.000     0.000     0.000    0.47    0.00    0.00      0   -0.09   -9.00
     1    11  2011    11    2     0.000     0.000     0.000     0.000     0.000    0.49    0.00    0.00      0   -0.09   -9.00
     2    11  2011    12    2     0.000     0.000     0.000     0.000     0.000    0.51    0.00    0.00      0   -0.09   -9.00
     3    11  2011    13    2     0.000     0.000     0.000     0.000     0.000    0.53    0.00    0.00      0   -0.09   -9.00
     4    11  2011    14    2     0.000     0.000     0.000     0.000     0.000    0.55    0.00    0.00      0   -0.09   -9.00
     5    11  2011    15    2     0.000     0.000     0.000     0.000     0.000    0.56    0.00    0.00      0   -0.09   -9.00
     6    11  2011    16    2     0.000     0.000     0.000     0.000     0.000    0.58    0.00    0.00      0   -0.09   -9.00
     7    11  2011    17    2     0.000     0.000     0.000     0.000     0.000    0.60    0.00    0.00      0   -0.09   -9.00
     8    11  2011    18    2     0.000     0.000     0.000     0.000     0.000    0.61    0.00    0.00      0   -0.09   -9.00
     9    11  2011    19    2     0.000     0.000     0.000     0.000     0.000    0.63    0.00    0.00      0   -0.09   -9.00
    10    11  2011    20    2     0.000     0.000     0.000     0.000     0.000    0.64    0.00    0.00      0   -0.09   -9.00
    11    11  2011    21    2     0.000     0.000     0.000     0.000     0.000    0.66    0.00    0.00      0   -0.09   -9.00
    12    11  2011    22    2     0.000     0.000     0.000     0.000     0.000    0.67    0.00    0.00      0   -0.09   -9.00
    13    11  2011    23    2     0.000     0.000     0.000     0.000     0.000    0.69    0.00    0.00      0   -0.09   -9.00
    14    11  2011    24    2     0.000     0.000     0.000     0.000     0.000    0.70    0.00    0.00      0   -0.09   -9.00
    15    11  2011    25    2     0.000     0.000     0.000     0.000     0.000    0.72    0.00    0.00      0   -0.09   -9.00
    16    11  2011    26    2     0.000     0.000     0.000     0.000     0.000    0.73    0.00    0.00      0   -0.09   -9.00
    17    11  2011    27    2     0.000     0.000     0.000     0.000     0.000    0.74    0.00    0.00      0   -0.09   -9.00
    18    11  2011    28    2     0.000     0.000     0.000     0.000     0.000    0.75    0.00    0.00      0   -0.09   -9.00
    19    11  2011    29    2     0.000     0.000     0.000     0.000     0.000    0.77    0.00    0.00      0   -0.09   -9.00
    20    11  2011    30    3     0.000     0.000     0.000     0.000     0.000    0.78    0.00    0.00      0   -0.09   -9.00
    21    11  2011    31    3     0.000     0.000     0.000     0.000     0.000    0.79    0.00    0.00      0   -0.09   -9.00
    22    11  2011    32    3     0.000     0.000     0.000     0.000     0.000    0.80    0.00    0.00      0   -0.09   -9.00
    23    11  2011    33    3     0.000     0.000     0.000     0.000     0.000    0.82    0.00    0.00      0   -0.09   -9.00
    24    11  2011    34    3     0.000     0.000     0.000     0.000     0.000    0.83    0.00    0.00      0   -0.09   -9.00
    25    11  2011    35    3     0.000     0.000     0.000     0.000     0.000    0.84    0.00    0.00      0   -0.09   -9.00
    26    11  2011    36    3     0.000     0.000     0.000     0.000     0.000    0.85    0.00    0.00      0   -0.09   -9.00
    27    11  2011    37    3     0.000     0.000     0.000     0.000     0.000    0.86    0.00    0.00      0   -0.09   -9.00
    28    11  2011    38    3     0.000     0.000     0.000     0.000     0.000    0.87    0.00    0.00      0   -0.09   -9.00
    29    11  2011    39    3     0.000     0.000     0.000     0.000     0.000    0.89    0.00    0.00      0   -0.09   -9.00
    30    11  2011    40    3     0.000     0.000     0.000     0.000     0.000    0.90    0.00    0.00      0   -0.09   -9.00
     1    12  2011    41    3     0.000     0.000     0.000     0.000     0.000    0.91    0.00    0.00      0   -0.09   -9.00
     2    12  2011    42    3     0.000     0.000     0.000     0.000     0.000    0.92    0.00    0.00      0   -0.09   -9.00
     3    12  2011    43    3     0.000     0.000     0.000     0.000     0.000    0.93    0.00    0.00      0   -0.09   -9.00
     4    12  2011    44    3     0.000     0.000     0.000     0.000     0.000    0.94    0.00    0.00      0   -0.09   -9.00
     5    12  2011    45    3     0.000     0.000     0.000     0.000     0.000    0.95    0.00    0.00      0   -0.09   -9.00
     6    12  2011    46    3     0.000     0.000     0.000     0.000     0.000    0.96    0.00    0.00      0   -0.09   -9.00
     7    12  2011    47    3     0.000     0.000     0.000     0.000     0.000    0.97    0.00    0.00      0   -0.09   -9.00
     8    12  2011    48    3     0.000     0.000     0.000     0.000     0.000    0.98    0.00    0.00      0   -0.09   -9.00
     9    12  2011    49    3     0.000     0.000     0.000     0.000     0.000    0.99    0.00    0.00      0   -0.09   -9.00
    10    12  2011    50    3     0.000     0.000     0.000     0.000     0.000    0.99    0.00    0.00      0   -0.09   -9.00
    11    12  2011    51    3     0.000     0.000     0.000     0.000     0.000    1.00    0.00    0.00      0   -0.09   -9.00
    12    12  2011    52    3     0.000     0.000     0.000     0.000     0.000    1.00    0.00    0.00      0   -0.09   -9.00
    13    12  2011    53    3     0.000     0.000     0.000     0.000     0.000    1.00    0.00    0.00      0   -0.09   -9.00
    14    12  2011    54    3     0.000     0.000     0.000     0.000     0.000    1.00    0.00    0.00      0   -0.09   -9.00
    15    12  2011    55    3     0.000     0.000     0.000     0.000     0.000    1.00    0.00    0.00      0   -0.09   -9.00
    16    12  2011    56    3     0.000     0.000     0.000     0.000     0.000    1.00    0.00    0.00      0   -0.09   -9.00
    17    12  2011    57    3     0.000     0.000     0.000     0.000     0.000    1.00    0.00    0.00      0   -0.09   -9.00
    18    12  2011    58    3     0.000     0.000     0.000     0.000     0.000    1.00    0.00    0.00      0   -0.09   -9.00
    19    12  2011    59    3     0.000     0.000     0.000     0.000     0.000    1.00    0.00    0.00      0   -0.09   -9.00
    20    12  2011    60    3     0.000     0.000     0.000     0.000     0.000    1.00    0.00    0.00      0   -0.09   -9.00
    21    12  2011    61    3     0.000     0.000     0.000     0.000     0.000    1.00    0.00    0.00      0   -0.09   -9.00
    22    12  2011    62    3     0.000     0.000     0.000     0.000     0.000    1.00    0.00    0.00      0   -0.09   -9.00
    23    12  2011    63    3     0.000     0.000     0.000     0.000     0.000    1.00    0.00    0.00      0   -0.09   -9.00
    24    12  2011    64    3     0.000     0.000     0.000     0.000     0.000    1.00    0.00    0.00      0   -0.09   -9.00
    25    12  2011    65    3     0.000     0.000     0.000     0.000     0.000    1.00    0.00    0.00      0   -0.09   -9.00
    26    12  2011    66    3     0.000     0.000     0.000     0.000     0.000    1.00    0.00    0.00      0   -0.09   -9.00
    27    12  2011    67    3     0.000     0.000     0.000     0.000     0.000    1.00    0.00    0.00      0   -0.09   -9.00
    28    12  2011    68    3     0.000     0.000     0.000     0.000     0.000    1.00    0.00    0.00      0   -0.09   -9.00
    29    12  2011    69    3     0.000     0.000     0.000     0.000     0.000    1.00    0.00    0.00      0   -0.09   -9.00
    30    12  2011    70    3     0.000     0.000     0.000     0.000     0.000    1.00    0.00    0.00      0   -0.09   -9.00
    31    12  2011    71    3     0.000     0.000     0.000     0.000     0.000    1.00    0.00    0.00      0   -0.09   -9.00
     1     1  2012    72    3     0.000     0.000     0.000     0.000     0.000    1.00    0.00    0.00      0   -0.09   -9.00
     2     1  2012    73    3     0.000     0.000     0.000     0.000     0.000    1.00    0.00    0.00      0   -0.09   -9.00
     3     1  2012    74    3     0.000     0.000     0.000     0.000     0.000    1.00    0.00    0.00      0   -0.09   -9.00
     4     1  2012    75    3     0.000     0.000     0.000     0.000     0.000    1.00    0.00    0.00      0   -0.09   -9.00
     5     1  2012    76    3     0.000     0.000     0.000     0.000     0.000    1.00    0.00    0.00      0   -0.09   -9.00
     6     1  2012    77    3     0.000     0.000     0.000     0.000     0.000    1.00    0.00    0.00      0   -0.09   -9.00
     7     1  2012    78    3     0.000     0.000     0.000     0.000     0.000    1.00    0.00    0.00      0   -0.09   -9.00
     8     1  2012    79    3     0.000     0.000     0.000     0.000     0.000    1.00    0.00    0.00      0   -0.09   -9.00
     9     1  2012    80    3     0.000     0.000     0.000     0.000     0.000    1.00    0.00    0.00      0   -0.09   -9.00
    10     1  2012    81    4     0.000     0.000     0.000     0.000     0.000    1.00    0.00    0.00      0   -0.09   -9.00
    11     1  2012    82    4     0.000     0.000     0.000     0.000     0.000    1.00    0.00    0.00      0   -0.09   -9.00
    12     1  2012    83    4     0.000     0.000     0.000     0.000     0.000    1.00    0.00    0.00      0   -0.09   -9.00
    13     1  2012    84    4     0.000     0.000     0.000     0.000     0.000    1.00    0.00    0.00      0   -0.09   -9.00
    14     1  2012    85    4     0.000     0.000     0.000     0.000     0.000    1.00    0.00    0.00      0   -0.09   -9.00
    15     1  2012    86    4     0.000     0.000     0.000     0.000     0.000    1.00    0.00    0.00      0   -0.09   -9.00
    16     1  2012    87    4     0.000     0.000     0.000     0.000     0.000    1.00    0.00    0.00      0   -0.09   -9.00
    17     1  2012    88    4     0.000     0.000     0.000     0.000     0.000    1.00    0.00    0.00      0   -0.09   -9.00
    18     1  2012    89    4     0.000     0.000     0.000     0.000     0.000    1.00    0.00    0.00      0   -0.09   -9.00
    19     1  2012    90    4     0.000     0.000     0.000     0.000     0.000    1.00    0.00    0.00      0   -0.09   -9.00
    20     1  2012    91    4     0.000     0.000     0.000     0.000     0.000    1.00    0.00    0.00      0   -0.09   -9.00
    21     1  2012    92    4     0.000     0.000     0.000     0.000     0.000    1.00    0.00    0.00      0   -0.09   -9.00
    22     1  2012    93    4     0.000     0.000     0.000     0.000     0.000    1.00    0.00    0.00      0   -0.09   -9.00
    23     1  2012    94    4     0.000     0.000     0.000     0.000     0.000    1.00    0.00    0.00      0   -0.09   -9.00
    24     1  2012    95    4     0.000     0.000     0.000     0.000     0.000    1.00    0.00    0.00      0   -0.09   -9.00
    25     1  2012    96    4     0.000     0.000     0.000     0.000     0.000    1.00    0.00    0.00      0   -0.09   -9.00
    26     1  2012    97    4     0.000     0.000     0.000     0.000     0.000    1.00    0.00    0.00      0   -0.09   -9.00
    27     1  2012    98    4     0.000     0.000     0.000     0.000     0.000    1.00    0.00    0.00      0   -0.09   -9.00
    28     1  2012    99    4     0.000     0.000     0.000     0.000     0.000    1.00    0.00    0.00      0   -0.09   -9.00
    29     1  2012   100    4     0.000     0.000     0.000     0.000     0.000    1.00    0.00    0.00      0   -0.09   -9.00
    30     1  2012   101    4     0.000     0.000     0.000     0.000     0.000    1.00    0.00    0.00      0   -0.09   -9.00
    31     1  2012   102    4     0.000     0.000     0.000     0.000     0.000    1.00    0.00    0.00      0   -0.09   -9.00
     1     2  2012   103    4     0.000     0.000     0.000     0.000     0.000    1.00    0.00    0.00      0   -0.09   -9.00
     2     2  2012   104    4     0.000     0.000     0.000     0.000     0.000    1.00    0.00    0.00      0   -0.09   -9.00
     3     2  2012   105    4     0.000     0.000     0.000     0.000     0.000    1.00    0.00    0.00      0   -0.09   -9.00
     4     2  2012   106    4     0.000     0.000     0.000     0.000     0.000    1.00    0.00    0.00      0   -0.09   -9.00
     5     2  2012   107    4     0.000     0.000     0.000     0.000     0.000    1.00    0.00    0.00      0   -0.09   -9.00
     6     2  2012   108    4     0.000     0.000     0.000     0.000     0.000    1.00    0.00    0.00      0   -0.09   -9.00
     7     2  2012   109    4     0.000     0.000     0.000     0.000     0.000    1.00    0.00    0.00      0   -0.09   -9.00
     8     2  2012   110    4     0.000     0.000     0.000     0.000     0.000    1.00    0.00    0.00      0   -0.09   -9.00
     9     2  2012   111    4     0.000     0.000     0.000     0.000     0.000    1.00    0.00    0.00      0   -0.09   -9.00
    10     2  2012   112    4     0.000     0.000     0.000     0.000     0.000    1.00    0.00    0.00      0   -0.09   -9.00
    11     2  2012   113    4     0.000     0.000     0.000     0.000     0.000    1.00    0.00    0.00      0   -0.09   -9.00
    12     2  2012   114    4     0.000     0.000     0.000     0.000     0.000    1.00    0.00    0.00      0   -0.09   -9.00
    13     2  2012   115    4     0.000     0.000     0.000     0.000     0.000    1.00    0.00    0.00      0   -0.09   -9.00
    14     2  2012   116    4     0.000     0.000     0.000     0.000     0.000    1.00    0.00    0.00      0   -0.09   -9.00
    15     2  2012   117    4     0.000     0.000     0.000     0.000     0.000    1.00    0.00    0.00      0   -0.09   -9.00
    16     2  2012   118    4     0.000     0.000     0.000     0.000     0.000    1.00    0.00    0.00      0   -0.09   -9.00
    17     2  2012   119    4     0.000     0.000     0.000     0.000     0.000    1.00    0.00    0.00      0   -0.09   -9.00
    18     2  2012   120    4     0.000     0.000     0.000     0.000     0.000    1.00    0.00    0.00      0   -0.09   -9.00
    19     2  2012   121    4     0.000     0.000     0.000     0.000     0.000    1.00    0.00    0.00      0   -0.09   -9.00
    20     2  2012   122    4     0.000     0.000     0.000     0.000     0.000    1.00    0.00    0.00      0   -0.09   -9.00
    21     2  2012   123    4     0.000     0.000     0.000     0.000     0.000    1.00    0.00    0.00      0   -0.09   -9.00
    22     2  2012   124    4     0.000     0.000     0.000     0.000     0.000    1.00    0.00    0.00      0   -0.09   -9.00
    23     2  2012   125    4     0.000     0.000     0.000     0.000     0.000    1.00    0.00    0.00      0   -0.09   -9.00
    24     2  2012   126    4     0.000     0.000     0.000     0.000     0.000    1.00    0.00    0.00      0   -0.09   -9.00
    25     2  2012   127    4     0.000     0.000     0.000     0.000     0.000    1.00    0.00    0.00      0   -0.09   -9.00
