AquaCrop 4.0 (June 2012) - Output created on (date) : 26.07.2020   at (time) : 09:52:51
Soil Water balance

   Day Month  Year   DAP Stage     WCTot    Rain     Irri   Surf   Infilt   RO    Drain       CR    Zgwt       Ex       E     E/Ex    Trx       Tr  Tr/Trx    ETx      ET   ET/ETx
                                      mm      mm       mm     mm     mm     mm       mm       mm      m        mm       mm     %       mm       mm    %        mm      mm      %
    22    10  2011     1    1      152.9     0.0     30.0    0.0   30.0    0.0      0.0      0.0   -9.90      7.7      7.1    92      0.0      0.0   100      7.7     7.1     92
    23    10  2011     2    1      133.8     0.0      0.0    0.0    0.0    0.0     18.5      0.0   -9.90      6.9      0.6     8      0.0      0.0   100      6.9     0.6      8
    24    10  2011     3    1      129.9     0.0      0.0    0.0    0.0    0.0      3.4      0.0   -9.90      6.8      0.5     7      0.1      0.1   100      6.9     0.6      8
    25    10  2011     4    2      129.0     0.0      0.0    0.0    0.0    0.0      0.4      0.0   -9.90      6.1      0.4     7      0.1      0.1   100      6.2     0.5      8
    26    10  2011     5    2      128.4     0.0      0.0    0.0    0.0    0.0      0.0      0.0   -9.90      6.4      0.4     6      0.1      0.1   100      6.5     0.5      8
    27    10  2011     6    2      127.8     0.0      0.0    0.0    0.0    0.0      0.0      0.0   -9.90      7.5      0.4     6      0.2      0.2   100      7.7     0.6      8
    28    10  2011     7    2      127.3     0.0      0.0    0.0    0.0    0.0      0.0      0.0   -9.90      6.8      0.4     5      0.2      0.2   100      6.9     0.5      8
    29    10  2011     8    2      126.8     0.0      0.0    0.0    0.0    0.0      0.0      0.0   -9.90      6.6      0.3     5      0.2      0.2   100      6.8     0.5      8
    30    10  2011     9    2      126.1     0.0      0.0    0.0    0.0    0.0      0.0      0.0   -9.90      8.0      0.4     5      0.2      0.2   100      8.2     0.6      8
    31    10  2011    10    2      150.4     0.0     30.0    0.0   30.0    0.0      0.0      0.0   -9.90      5.6      5.5    97      0.2      0.2   100      5.8     5.7     98
     1    11  2011    11    2      130.9     0.2      0.0    0.0    0.2    0.0     16.6      0.0   -9.90      4.3      3.0    69      0.2      0.2   100      4.5     3.2     70
     2    11  2011    12    2      126.7     0.0      0.0    0.0    0.0    0.0      3.1      0.0   -9.90      2.5      0.9    37      0.1      0.1   100      2.6     1.1     40
     3    11  2011    13    2      125.3     0.0      0.0    0.0    0.0    0.0      0.4      0.0   -9.90      3.1      0.9    28      0.2      0.2   100      3.3     1.1     32
     4    11  2011    14    2      124.0     0.0      0.0    0.0    0.0    0.0      0.0      0.0   -9.90      4.4      0.9    21      0.3      0.3   100      4.7     1.2     26
     5    11  2011    15    2      122.9     0.0      0.0    0.0    0.0    0.0      0.0      0.0   -9.90      4.9      0.7    15      0.4      0.4   100      5.3     1.1     21
     6    11  2011    16    2      121.9     0.0      0.0    0.0    0.0    0.0      0.0      0.0   -9.90      4.9      0.5    11      0.4      0.4   100      5.3     1.0     18
     7    11  2011    17    2      120.9     0.0      0.0    0.0    0.0    0.0      0.0      0.0   -9.90      5.4      0.5     9      0.5      0.5   100      5.9     1.0     17
     8    11  2011    18    2      119.8     0.2      0.0    0.0    0.2    0.0      0.0      0.0   -9.90      4.1      0.8    19      0.5      0.5   100      4.6     1.3     28
     9    11  2011    19    2      119.2     0.0      0.0    0.0    0.0    0.0      0.0      0.0   -9.90      2.5      0.3    11      0.3      0.3   100      2.9     0.6     22
    10    11  2011    20    2      146.7     0.0     30.0    0.0   30.0    0.0      0.0      0.0   -9.90      2.2      2.2   100      0.3      0.3   100      2.5     2.5    100
    11    11  2011    21    2      129.5     0.0      0.0    0.0    0.0    0.0     13.1      0.0   -9.90      3.8      3.3    88      0.7      0.7   100      4.5     4.0     89
    12    11  2011    22    2      124.7     0.0      0.0    0.0    0.0    0.0      2.7      0.0   -9.90      3.6      1.4    38      0.8      0.8   100      4.4     2.1     49
    13    11  2011    23    2      122.7     0.0      0.0    0.0    0.0    0.0      0.4      0.0   -9.90      3.3      0.7    22      0.8      0.8   100      4.2     1.6     37
    14    11  2011    24    2      121.3     0.0      0.0    0.0    0.0    0.0      0.0      0.0   -9.90      3.1      0.4    14      0.9      0.9   100      4.1     1.4     33
    15    11  2011    25    2      119.7     0.0      0.0    0.0    0.0    0.0      0.0      0.0   -9.90      3.8      0.4    10      1.3      1.3   100      5.1     1.7     33
    16    11  2011    26    2      117.9     0.0      0.0    0.0    0.0    0.0      0.0      0.0   -9.90      3.6      0.3     7      1.5      1.5   100      5.1     1.7     34
    17    11  2011    27    2      116.1     0.0      0.0    0.0    0.0    0.0      0.0      0.0   -9.90      3.5      0.2     6      1.7      1.7   100      5.2     1.9     36
    18    11  2011    28    2      114.0     0.0      0.0    0.0    0.0    0.0      0.0      0.0   -9.90      3.4      0.1     4      1.9      1.9   100      5.4     2.1     39
    19    11  2011    29    2      112.1     0.0      0.0    0.0    0.0    0.0      0.0      0.0   -9.90      2.8      0.1     3      1.8      1.8   100      4.6     1.9     41
    20    11  2011    30    3      136.7     0.0     30.0    0.0   30.0    0.0      0.0      0.0   -9.90      3.0      3.0   100      2.4      2.4   100      5.4     5.4    100
    21    11  2011    31    3      127.6     0.0      0.0    0.0    0.0    0.0      4.4      0.0   -9.90      2.5      2.3    91      2.4      2.4   100      4.9     4.7     95
    22    11  2011    32    3      123.0     0.0      0.0    0.0    0.0    0.0      1.4      0.0   -9.90      2.1      0.6    31      2.5      2.5   100      4.6     3.1     68
    23    11  2011    33    3      119.6     0.0      0.0    0.0    0.0    0.0      0.2      0.0   -9.90      2.1      0.3    13      3.0      3.0   100      5.0     3.2     64
    24    11  2011    34    3      116.0     0.0      0.0    0.0    0.0    0.0      0.0      0.0   -9.90      2.1      0.2     9      3.4      3.4   100      5.5     3.6     66
    25    11  2011    35    3      112.6     0.0      0.0    0.0    0.0    0.0      0.0      0.0   -9.90      1.7      0.1     6      3.3      3.3   100      5.0     3.4     68
    26    11  2011    36    3      109.6     0.0      0.0    0.0    0.0    0.0      0.0      0.0   -9.90      1.4      0.0     4      2.9      2.9   100      4.3     3.0     69
    27    11  2011    37    3      106.6     0.0      0.0    0.0    0.0    0.0      0.0      0.0   -9.90      1.3      0.0     3      3.0      3.0   100      4.3     3.0     71
    28    11  2011    38    3      103.5     0.0      0.0    0.0    0.0    0.0      0.0      0.0   -9.90      1.2      0.0     3      3.0      3.0   100      4.2     3.0     73
    29    11  2011    39    3      100.8     0.0      0.0    0.0    0.0    0.0      0.0      0.0   -9.90      1.0      0.0     3      2.7      2.7   100      3.7     2.8     74
    30    11  2011    40    3      126.7     0.0     30.0    0.0   30.0    0.0      0.0      0.0   -9.90      1.0      1.0   100      3.0      3.0   100      4.1     4.1    100
     1    12  2011    41    3      122.0     0.0      0.0    0.0    0.0    0.0      0.0      0.0   -9.90      1.1      1.1   100      3.6      3.6   100      4.7     4.7    100
     2    12  2011    42    3      117.1     0.0      0.0    0.0    0.0    0.0      0.0      0.0   -9.90      1.1      1.1   100      3.8      3.8   100      4.9     4.9    100
     3    12  2011    43    3      113.3     0.0      0.0    0.0    0.0    0.0      0.0      0.0   -9.90      0.9      0.7    87      3.1      3.1   100      3.9     3.8     97
     4    12  2011    44    3      109.6     0.0      0.0    0.0    0.0    0.0      0.0      0.0   -9.90      0.9      0.1    11      3.5      3.5   100      4.5     3.7     81
     5    12  2011    45    3      105.9     0.0      0.0    0.0    0.0    0.0      0.0      0.0   -9.90      0.9      0.1     6      3.7      3.7   100      4.6     3.7     81
     6    12  2011    46    3      101.8     0.0      0.0    0.0    0.0    0.0      0.0      0.0   -9.90      1.0      0.0     4      4.0      4.0   100      5.0     4.1     81
     7    12  2011    47    3       98.2     0.0      0.0    0.0    0.0    0.0      0.0      0.0   -9.90      0.8      0.0     4      3.5      3.5   100      4.4     3.6     81
     8    12  2011    48    3       94.7     0.0      0.0    0.0    0.0    0.0      0.0      0.0   -9.90      0.8      0.0     4      3.5      3.5   100      4.4     3.6     82
     9    12  2011    49    3       91.3     0.0      0.0    0.0    0.0    0.0      0.0      0.0   -9.90      0.8      0.0     4      3.4      3.4   100      4.2     3.4     82
    10    12  2011    50    3      117.3     0.0     30.0    0.0   30.0    0.0      0.0      0.0   -9.90      0.7      0.7   100      3.2      3.2   100      3.9     3.9    100
    11    12  2011    51    3      113.7     0.0      0.0    0.0    0.0    0.0      0.0      0.0   -9.90      0.7      0.7   100      3.0      3.0   100      3.6     3.6    100
    12    12  2011    52    3      109.9     0.0      0.0    0.0    0.0    0.0      0.0      0.0   -9.90      0.7      0.7   100      3.1      3.1   100      3.8     3.8    100
    13    12  2011    53    3      106.4     0.0      0.0    0.0    0.0    0.0      0.0      0.0   -9.90      0.6      0.6   100      2.9      2.9   100      3.5     3.5    100
    14    12  2011    54    3      102.8     0.0      0.0    0.0    0.0    0.0      0.0      0.0   -9.90      0.6      0.6   100      3.0      3.0   100      3.6     3.6    100
    15    12  2011    55    3       99.2     0.0      0.0    0.0    0.0    0.0      0.0      0.0   -9.90      0.6      0.6   100      3.0      3.0   100      3.6     3.6    100
    16    12  2011    56    3       95.8     0.0      0.0    0.0    0.0    0.0      0.0      0.0   -9.90      0.7      0.1    17      3.3      3.3   100      3.9     3.4     86
    17    12  2011    57    3       92.5     0.0      0.0    0.0    0.0    0.0      0.0      0.0   -9.90      0.7      0.0     3      3.3      3.3   100      3.9     3.3     84
    18    12  2011    58    3       89.0     0.0      0.0    0.0    0.0    0.0      0.0      0.0   -9.90      0.7      0.0     3      3.5      3.5   100      4.2     3.5     84
    19    12  2011    59    3       86.5     0.0      0.0    0.0    0.0    0.0      0.0      0.0   -9.90      0.5      0.0     3      2.6      2.5    95      3.2     2.5     79
    20    12  2011    60    3      110.7     0.0     30.0    0.0   30.0    0.0      0.0      0.0   -9.90      1.0      1.0   100      4.8      4.8   100      5.8     5.8    100
    21    12  2011    61    3      106.7     0.0      0.0    0.0    0.0    0.0      0.0      0.0   -9.90      0.6      0.6   100      3.3      3.3   100      3.9     3.9    100
    22    12  2011    62    3      103.2     0.0      0.0    0.0    0.0    0.0      0.0      0.0   -9.90      0.6      0.6   100      2.9      2.9   100      3.5     3.5    100
    23    12  2011    63    3       99.6     0.0      0.0    0.0    0.0    0.0      0.0      0.0   -9.90      0.6      0.6   100      3.0      3.0   100      3.6     3.6    100
    24    12  2011    64    3       95.9     0.0      0.0    0.0    0.0    0.0      0.0      0.0   -9.90      0.6      0.6   100      3.1      3.1   100      3.7     3.7    100
    25    12  2011    65    3       92.7     0.0      0.0    0.0    0.0    0.0      0.0      0.0   -9.90      0.5      0.5   100      2.7      2.7   100      3.2     3.2    100
    26    12  2011    66    3       90.1     0.0      0.0    0.0    0.0    0.0      0.0      0.0   -9.90      0.5      0.2    37      2.5      2.5   100      2.9     2.7     90
    27    12  2011    67    3       87.0     0.0      0.0    0.0    0.0    0.0      0.0      0.0   -9.90      0.6      0.0     3      3.2      3.0    94      3.8     3.1     80
    28    12  2011    68    3       84.1     0.0      0.0    0.0    0.0    0.0      0.0      0.0   -9.90      0.6      0.0     3      3.4      2.8    84      4.0     2.9     71
    29    12  2011    69    3       81.6     0.0      0.0    0.0    0.0    0.0      0.0      0.0   -9.90      0.6      0.0     3      3.3      2.5    75      3.9     2.5     64
    30    12  2011    70    3      107.2     0.0     30.0    0.0   30.0    0.0      0.0      0.0   -9.90      0.7      0.7   100      3.8      3.8   100      4.5     4.5    100
    31    12  2011    71    3      102.6     0.0      0.0    0.0    0.0    0.0      0.0      0.0   -9.90      0.7      0.7   100      3.9      3.9   100      4.6     4.6    100
     1     1  2012    72    3       98.5     0.0      0.0    0.0    0.0    0.0      0.0      0.0   -9.90      0.6      0.6   100      3.5      3.5   100      4.1     4.1    100
     2     1  2012    73    3       94.6     0.0      0.0    0.0    0.0    0.0      0.0      0.0   -9.90      0.6      0.6   100      3.3      3.3   100      3.9     3.9    100
     3     1  2012    74    3       90.7     0.0      0.0    0.0    0.0    0.0      0.0      0.0   -9.90      0.6      0.6   100      3.3      3.3   100      3.9     3.9    100
     4     1  2012    75    3       87.2     0.0      0.0    0.0    0.0    0.0      0.0      0.0   -9.90      0.5      0.5   100      3.0      2.9    96      3.6     3.4     96
     5     1  2012    76    3       84.2     0.0      0.0    0.0    0.0    0.0      0.0      0.0   -9.90      0.6      0.3    54      3.2      2.7    84      3.8     3.0     80
     6     1  2012    77    3       81.9     0.0      0.0    0.0    0.0    0.0      0.0      0.0   -9.90      0.5      0.0     3      2.9      2.2    78      3.4     2.2     67
     7     1  2012    78    3       79.9     0.0      0.0    0.0    0.0    0.0      0.0      0.0   -9.90      0.5      0.0     3      2.8      2.0    71      3.4     2.0     61
     8     1  2012    79    3       78.1     0.0      0.0    0.0    0.0    0.0      0.0      0.0   -9.90      0.5      0.0     3      2.8      1.8    64      3.4     1.8     55
     9     1  2012    80    3      104.7     0.0     30.0    0.0   30.0    0.0      0.0      0.0   -9.90      0.5      0.5   100      2.8      2.8   100      3.3     3.3    100
    10     1  2012    81    4      100.6     0.0      0.0    0.0    0.0    0.0      0.0      0.0   -9.90      0.6      0.6   100      3.5      3.5   100      4.1     4.1    100
    11     1  2012    82    4       95.9     0.0      0.0    0.0    0.0    0.0      0.0      0.0   -9.90      0.7      0.7   100      4.0      4.0   100      4.7     4.7    100
    12     1  2012    83    4       92.0     0.0      0.0    0.0    0.0    0.0      0.0      0.0   -9.90      0.6      0.6   100      3.3      3.3   100      3.9     3.9    100
    13     1  2012    84    4       88.4     0.0      0.0    0.0    0.0    0.0      0.0      0.0   -9.90      0.5      0.5   100      3.1      3.1    99      3.7     3.6     99
    14     1  2012    85    4       85.0     0.0      0.0    0.0    0.0    0.0      0.0      0.0   -9.90      0.6      0.6   100      3.3      2.8    87      3.9     3.4     89
    15     1  2012    86    4       81.7     0.0      0.0    0.0    0.0    0.0      0.0      0.0   -9.90      0.7      0.5    69      3.8      2.8    74      4.5     3.3     73
    16     1  2012    87    4       79.2     0.0      0.0    0.0    0.0    0.0      0.0      0.0   -9.90      0.7      0.0     3      3.7      2.4    65      4.4     2.5     56
    17     1  2012    88    4       77.0     0.0      0.0    0.0    0.0    0.0      0.0      0.0   -9.90      0.7      0.0     3      3.8      2.2    58      4.5     2.2     49
    18     1  2012    89    4       74.7     0.0      0.0    0.0    0.0    0.0      0.0      0.0   -9.90      0.9      0.0     3      4.8      2.2    46      5.7     2.3     40
    19     1  2012    90    4      100.7     0.0     30.0    0.0   30.0    0.0      0.0      0.0   -9.90      0.6      0.6   100      3.5      3.5   100      4.1     4.1    100
    20     1  2012    91    4       95.1     0.0      0.0    0.0    0.0    0.0      0.0      0.0   -9.90      0.8      0.8   100      4.7      4.7   100      5.6     5.6    100
    21     1  2012    92    4       90.4     0.2      0.0    0.0    0.2    0.0      0.0      0.0   -9.90      0.7      0.7    92      4.2      4.2   100      4.9     4.9     99
    22     1  2012    93    4       86.6     0.0      0.0    0.0    0.0    0.0      0.0      0.0   -9.90      0.7      0.2    23      4.1      3.6    89      4.8     3.8     79
    23     1  2012    94    4       83.8     0.0      0.0    0.0    0.0    0.0      0.0      0.0   -9.90      0.6      0.0     8      3.4      2.8    82      3.9     2.8     71
    24     1  2012    95    4       80.3     0.0      0.0    0.0    0.0    0.0      0.0      0.0   -9.90      0.9      0.0     5      5.3      3.5    65      6.3     3.5     56
    25     1  2012    96    4       77.6     0.0      0.0    0.0    0.0    0.0      0.0      0.0   -9.90      0.8      0.0     5      4.7      2.7    57      5.5     2.7     49
    26     1  2012    97    4       75.7     0.0      0.0    0.0    0.0    0.0      0.0      0.0   -9.90      0.6      0.0     5      3.4      1.9    54      4.0     1.9     47
    27     1  2012    98    4       74.2     0.0      0.0    0.0    0.0    0.0      0.0      0.0   -9.90      0.5      0.0     4      2.9      1.4    50      3.4     1.5     43
    28     1  2012    99    4       72.8     0.0      0.0    0.0    0.0    0.0      0.0      0.0   -9.90      0.6      0.0     4      3.2      1.4    44      3.8     1.5     38
    29     1  2012   100    4       71.3     0.0      0.0    0.0    0.0    0.0      0.0      0.0   -9.90      0.7      0.0     4      3.7      1.4    38      4.4     1.5     33
    30     1  2012   101    4       70.0     0.0      0.0    0.0    0.0    0.0      0.0      0.0   -9.90      0.7      0.0     4      3.7      1.3    34      4.4     1.3     29
    31     1  2012   102    4       69.0     0.0      0.0    0.0    0.0    0.0      0.0      0.0   -9.90      0.6      0.0     4      3.2      1.0    31      3.9     1.0     27
     1     2  2012   103    4       67.7     0.0      0.0    0.0    0.0    0.0      0.0      0.0   -9.90      1.0      0.0     4      5.1      1.2    24      6.1     1.3     21
     2     2  2012   104    4       66.9     0.0      0.0    0.0    0.0    0.0      0.0      0.0   -9.90      0.7      0.0     4      3.4      0.8    23      4.1     0.8     20
     3     2  2012   105    4       66.1     0.0      0.0    0.0    0.0    0.0      0.0      0.0   -9.90      0.7      0.0     4      3.4      0.7    21      4.1     0.7     18
     4     2  2012   106    4       65.3     0.0      0.0    0.0    0.0    0.0      0.0      0.0   -9.90      1.0      0.0     4      4.6      0.8    17      5.6     0.8     15
     5     2  2012   107    4       64.5     0.0      0.0    0.0    0.0    0.0      0.0      0.0   -9.90      1.1      0.0     4      5.2      0.7    14      6.3     0.8     12
     6     2  2012   108    4       65.0     2.5      0.0    0.0    2.5    0.0      0.0      0.0   -9.90      1.2      1.2   100      5.4      0.8    15      6.5     2.0     31
     7     2  2012   109    4       63.7     0.0      0.0    0.0    0.0    0.0      0.0      0.0   -9.90      0.9      0.9   100      3.8      0.5    12      4.7     1.3     28
     8     2  2012   110    4       62.9     0.0      0.0    0.0    0.0    0.0      0.0      0.0   -9.90      0.9      0.5    51      3.9      0.4     9      4.9     0.8     17
     9     2  2012   111    4       62.5     0.0      0.0    0.0    0.0    0.0      0.0      0.0   -9.90      0.8      0.0     3      3.4      0.3     8      4.2     0.3      7
    10     2  2012   112    4       62.2     0.0      0.0    0.0    0.0    0.0      0.0      0.0   -9.90      0.9      0.0     3      3.8      0.3     7      4.8     0.3      6
    11     2  2012   113    4       62.0     0.0      0.0    0.0    0.0    0.0      0.0      0.0   -9.90      0.9      0.0     3      3.6      0.2     6      4.5     0.3      6
    12     2  2012   114    4       61.8     0.0      0.0    0.0    0.0    0.0      0.0      0.0   -9.90      0.9      0.0     3      3.3      0.2     6      4.2     0.2      5
    13     2  2012   115    4       61.5     0.0      0.0    0.0    0.0    0.0      0.0      0.0   -9.90      1.2      0.0     3      4.4      0.2     5      5.6     0.2      4
    14     2  2012   116    4       61.3     0.0      0.0    0.0    0.0    0.0      0.0      0.0   -9.90      1.3      0.0     3      4.3      0.2     4      5.6     0.2      4
    15     2  2012   117    4       61.1     0.0      0.0    0.0    0.0    0.0      0.0      0.0   -9.90      1.0      0.0     3      3.1      0.1     4      4.1     0.1      4
    16     2  2012   118    4       61.0     0.0      0.0    0.0    0.0    0.0      0.0      0.0   -9.90      1.5      0.0     3      4.6      0.1     3      6.1     0.2      3
    17     2  2012   119    4       60.9     0.0      0.0    0.0    0.0    0.0      0.0      0.0   -9.90      1.1      0.0     3      3.1      0.1     3      4.1     0.1      3
    18     2  2012   120    4       60.7     0.0      0.0    0.0    0.0    0.0      0.0      0.0   -9.90      1.4      0.0     3      3.9      0.1     2      5.3     0.1      2
    19     2  2012   121    4       60.6     0.0      0.0    0.0    0.0    0.0      0.0      0.0   -9.90      1.2      0.0     3      2.9      0.1     2      4.1     0.1      2
    20     2  2012   122    4       60.6     0.0      0.0    0.0    0.0    0.0      0.0      0.0   -9.90      1.1      0.0     3      2.5      0.0     2      3.6     0.1      2
    21     2  2012   123    4       60.5     0.0      0.0    0.0    0.0    0.0      0.0      0.0   -9.90      1.3      0.0     3      2.7      0.0     1      4.0     0.1      2
    22     2  2012   124    4       60.4     0.0      0.0    0.0    0.0    0.0      0.0      0.0   -9.90      1.6      0.0     3      3.1      0.0     1      4.7     0.1      2
    23     2  2012   125    4       60.3     0.0      0.0    0.0    0.0    0.0      0.0      0.0   -9.90      1.5      0.0     3      2.8      0.0     1      4.3     0.1      2
    24     2  2012   126    4       60.3     0.0      0.0    0.0    0.0    0.0      0.0      0.0   -9.90      1.8      0.1     3      3.0      0.0     1      4.8     0.1      1
    25     2  2012   127    4       60.1     0.0      0.0    0.0    0.0    0.0      0.0      0.0   -9.90      4.0      0.1     3      0.0      0.0   100      4.0     0.1      3
